Circuit: * C:\Users\Théo\Documents\Université\BAC INGE\ELEC\LELEC1101\Projet\Spice\Dephasage.asc

Direct Newton iteration for .op point succeeded.

Date: Sat Oct 10 20:44:50 2020
Total elapsed time: 0.067 seconds.

tnom = 27
temp = 27
method = trap
totiter = 17
traniter = 0
tranpoints = 0
accept = 0
rejected = 0
matrix size = 29
fillins = 32
solver = Normal
Matrix Compiler1:     153 opcodes
Matrix Compiler2: 2.91 KB object code size
