Circuit: * C:\Users\Théo\Documents\unif\ELEC\Projet\Spice\diodetheorie.asc

.OP point found by inspection.

Date: Sat Apr 25 18:27:07 2020
Total elapsed time: 0.049 seconds.

tnom = 27
temp = 27
method = trap
totiter = 200
traniter = 0
tranpoints = 0
accept = 0
rejected = 0
matrix size = 3
fillins = 0
solver = Normal
Matrix Compiler1: 86 bytes object code size  0.0/0.0/[0.0]
Matrix Compiler2: 163 bytes object code size  0.0/0.0/[0.0]

