Circuit: * C:\Users\Théo\Documents\unif\ELEC\Projet\Spice\DomaineDef.asc

Direct Newton iteration for .op point succeeded.

Date: Sat Jun 06 21:49:42 2020
Total elapsed time: 0.052 seconds.

tnom = 27
temp = 27
method = trap
totiter = 17
traniter = 0
tranpoints = 0
accept = 0
rejected = 0
matrix size = 30
fillins = 32
solver = Normal
Matrix Compiler1:     160 opcodes
Matrix Compiler2: 3.01 KB object code size
