Circuit: * C:\Users\Théo\Documents\Université\BAC INGE\ELEC\LELEC1101\Projet\Spice\Draft1.asc

Direct Newton iteration for .op point succeeded.

Date: Tue Oct 13 09:54:27 2020
Total elapsed time: 0.111 seconds.

tnom = 27
temp = 27
method = modified trap
totiter = 2091
traniter = 2088
tranpoints = 1045
accept = 1045
rejected = 0
matrix size = 3
fillins = 0
solver = Normal
Matrix Compiler1: 50 bytes object code size  0.1/0.1/[0.1]
Matrix Compiler2: 175 bytes object code size  0.1/0.1/[0.1]

