Circuit: * C:\Users\Théo\Documents\unif\ELEC\Projet\Spice\Moyenne.asc

.OP point found by inspection.

Date: Thu May 14 16:11:56 2020
Total elapsed time: 0.058 seconds.

tnom = 27
temp = 27
method = modified trap
totiter = 22948
traniter = 22948
tranpoints = 11475
accept = 11171
rejected = 304
matrix size = 4
fillins = 0
solver = Normal
Matrix Compiler1: 100 bytes object code size  0.1/0.0/[0.0]
Matrix Compiler2: off  [0.0]/0.0/0.0

