Circuit: * C:\Users\Théo\Downloads\HomeWork1-Diviseur-Résistif\DiviseurRésistif.asc

WARNING: Less than two connections to node IN.  This node is used by V2.
Direct Newton iteration for .op point succeeded.

Date: Sun Oct 04 11:45:49 2020
Total elapsed time: 0.088 seconds.

tnom = 27
temp = 27
method = modified trap
totiter = 2103
traniter = 2096
tranpoints = 1049
accept = 1049
rejected = 0
matrix size = 6
fillins = 0
solver = Normal
Matrix Compiler1:      10 opcodes  0.1/[0.0]/0.0
Matrix Compiler2: 354 bytes object code size  0.1/0.1/[0.0]

