Circuit: * C:\Users\Théo\Documents\unif\ELEC\Labo 4\Comparateur_LT1011.asc

Direct Newton iteration failed to find .op point.  (Use ".option noopiter" to skip.)
Starting Gmin stepping
Increasing initial diagonal Gmin to 100
Increasing initial diagonal Gmin to 1000
Gmin = 1000
Gmin = 107.374
Gmin = 11.5292
Gmin = 1.23794
Gmin = 0.132923
Gmin = 0.0142725
Gmin = 0.0015325
Gmin = 0.00016455
Gmin = 1.76685e-005
Gmin = 1.89714e-006
Gmin = 2.03704e-007
Gmin = 2.18725e-008
Gmin = 2.34854e-009
Gmin = 2.52173e-010
Gmin = 2.70769e-011
Gmin = 2.90735e-012
Gmin = 3.12175e-013
Gmin = 0
Gmin stepping succeeded in finding the operating point.


Date: Mon Mar 23 20:13:37 2020
Total elapsed time: 0.185 seconds.

tnom = 27
temp = 27
method = modified trap
totiter = 7420
traniter = 6670
tranpoints = 2358
accept = 2027
rejected = 331
matrix size = 14
fillins = 1
solver = Normal
Matrix Compiler1: 564 bytes object code size  0.2/0.1/[0.0]
Matrix Compiler2: 1.18 KB object code size  0.2/0.2/[0.1]

