Circuit: * C:\Users\Théo\Documents\Université\BAC INGE\ELEC\LELEC1530\Devoir 3\Draft2.asc

Direct Newton iteration for .op point succeeded.

Date: Sat Nov 07 12:07:05 2020
Total elapsed time: 0.089 seconds.

tnom = 27
temp = 27
method = modified trap
totiter = 2093
traniter = 2088
tranpoints = 1045
accept = 1045
rejected = 0
matrix size = 6
fillins = 0
solver = Normal
Matrix Compiler1:      17 opcodes  0.1/[0.0]/0.1
Matrix Compiler2: off  [0.1]/0.1/0.1

