Circuit: * C:\Users\Théo\Documents\Université\BAC INGE\ELEC\LELEC1530\Devoir 3\Draft1.asc

Direct Newton iteration for .op point succeeded.

Date: Sun Nov 01 20:10:20 2020
Total elapsed time: 0.100 seconds.

tnom = 27
temp = 27
method = trap
totiter = 5
traniter = 0
tranpoints = 0
accept = 0
rejected = 0
matrix size = 8
fillins = 0
solver = Normal
Matrix Compiler1:      20 opcodes
Matrix Compiler2: 594 bytes object code size
