Circuit: * C:\Users\Théo\Documents\Université\BAC INGE\ELEC\LELEC1530\Devoir 3\Draft3.asc

.OP point found by inspection.

Date: Thu May 13 16:31:14 2021
Total elapsed time: 0.475 seconds.

tnom = 27
temp = 27
method = modified trap
totiter = 115302
traniter = 115302
tranpoints = 41125
accept = 25127
rejected = 15998
matrix size = 8
fillins = 0
solver = Normal
Matrix Compiler1:      11 opcodes  0.1/[0.0]/0.0
Matrix Compiler2: 438 bytes object code size  0.1/0.1/[0.0]

