Circuit: * C:\Users\Théo\Documents\Université\BAC INGE\ELEC\LELEC1530\Devoir 3\Homework3_BJT_DC_Gain.asc

Direct Newton iteration for .op point succeeded.

Date: Sat Nov 07 17:20:04 2020
Total elapsed time: 0.079 seconds.

tnom = 27
temp = 27
method = trap
totiter = 5
traniter = 0
tranpoints = 0
accept = 0
rejected = 0
matrix size = 9
fillins = 0
solver = Normal
Matrix Compiler1:      23 opcodes
Matrix Compiler2: 667 bytes object code size
