Circuit: * C:\Users\Théo\Documents\unif\ELEC\Labo7\Draft3.asc

Direct Newton iteration for .op point succeeded.

Date: Sun Mar 22 17:13:33 2020
Total elapsed time: 0.051 seconds.

tnom = 27
temp = 27
method = modified trap
totiter = 2962
traniter = 2944
tranpoints = 1473
accept = 1294
rejected = 179
matrix size = 29
fillins = 32
solver = Normal
Matrix Compiler1: 2.75 KB object code size  0.5/0.3/[0.2]
Matrix Compiler2: 2.91 KB object code size  0.7/0.3/[0.3]

