Circuit: * C:\Users\Théo\Documents\unif\ELEC\Labo7\figa.asc

Early termination of direct N-R iteration.
Direct Newton iteration failed to find .op point.  (Use ".option noopiter" to skip.)
Starting Gmin stepping
Gmin = 10
vernier = 0.5
vernier = 0.25
vernier = 0.125
Gmin = 5.5165
vernier = 0.0625
vernier = 0.03125
vernier = 0.015625
vernier = 0.0078125
Gmin = 5.49501
vernier = 0.00390625
vernier = 0.00195313
vernier = 0.000976563
vernier = 0.000488281
Gmin = 5.50104
Gmin = 0
Gmin stepping failed

Starting source stepping with srcstepmethod=0
Source Step = 3.0303%
Source Step = 33.3333%
Source Step = 63.6364%
Source Step = 93.9394%
Source stepping succeeded in finding the operating point.


Date: Wed Mar 25 15:57:36 2020
Total elapsed time: 0.269 seconds.

tnom = 27
temp = 27
method = modified trap
totiter = 6114
traniter = 4440
tranpoints = 1771
accept = 1535
rejected = 236
matrix size = 50
fillins = 216
solver = Normal
Matrix Compiler1: 19.46 KB object code size  2.9/1.5/[0.8]
Matrix Compiler2: 8.05 KB object code size  1.2/1.7/[0.3]

