Circuit: * C:\Users\Théo\Downloads\Draft1.asc

.step v2=2
.step v2=2.1
.step v2=2.2
.step v2=2.3

Date: Sun Oct 04 11:33:23 2020
Total elapsed time: 0.131 seconds.

tnom = 27
temp = 27
method = trap
totiter = 8012
traniter = 0
tranpoints = 0
accept = 0
rejected = 0
matrix size = 6
fillins = 0
solver = Normal
Matrix Compiler1: 254 bytes object code size  0.1/0.0/[0.0]
Matrix Compiler2: 398 bytes object code size  0.1/0.1/[0.1]

