Circuit: * C:\Users\Théo\Documents\unif\ELEC\Labo 6\Draft1.asc

.OP point found by inspection.

Date: Wed Mar 18 17:42:32 2020
Total elapsed time: 0.066 seconds.

tnom = 27
temp = 27
method = modified trap
totiter = 2082
traniter = 2082
tranpoints = 1042
accept = 1042
rejected = 0
matrix size = 6
fillins = 2
solver = Normal
Matrix Compiler1:      25 opcodes  0.1/[0.1]/0.1
Matrix Compiler2:      39 opcodes  0.1/[0.1]/0.1

