Circuit: * C:\Users\Théo\Downloads\Draft3.asc


Date: Sun Oct 04 11:34:09 2020
Total elapsed time: 0.057 seconds.

tnom = 27
temp = 27
method = trap
totiter = 2010
traniter = 0
tranpoints = 0
accept = 0
rejected = 0
matrix size = 5
fillins = 0
solver = Normal
Matrix Compiler1: 204 bytes object code size  0.1/0.0/[0.0]
Matrix Compiler2: 311 bytes object code size  0.1/0.0/[0.0]

