Circuit: * C:\Users\Théo\Documents\Université\BAC INGE\ELEC\LELEC1530\Devoir 1\Spice-Simu1-Denis-Théo\HomeWork1-Analyse-Gain\Gain.asc


Date: Sun Oct 18 15:18:00 2020
Total elapsed time: 0.066 seconds.

tnom = 27
temp = 27
method = trap
totiter = 2010
traniter = 0
tranpoints = 0
accept = 0
rejected = 0
matrix size = 5
fillins = 0
solver = Normal
Matrix Compiler1: 204 bytes object code size  0.0/0.1/[0.0]
Matrix Compiler2: off  [0.0]/0.1/0.0

