Circuit: * C:\Users\Théo\Documents\Université\BAC INGE\ELEC\LELEC1530\Devoir 5\Spice\Draft1.asc

Direct Newton iteration for .op point succeeded.

Date: Sun Nov 29 19:55:09 2020
Total elapsed time: 0.247 seconds.

tnom = 27
temp = 27
method = modified trap
totiter = 4354
traniter = 4331
tranpoints = 1796
accept = 1737
rejected = 59
matrix size = 68
fillins = 0
solver = Normal
Matrix Compiler1: 7.63 KB object code size  1.3/0.7/[0.3]
Matrix Compiler2: 7.61 KB object code size  0.6/0.9/[0.4]

