Circuit: * C:\Users\Théo\Documents\Université\BAC INGE\ELEC\LELEC1530\Devoir 5\Spice\NAND.asc

Direct Newton iteration for .op point succeeded.

Date: Sun Nov 29 10:35:24 2020
Total elapsed time: 0.264 seconds.

tnom = 27
temp = 27
method = modified trap
totiter = 2631
traniter = 2623
tranpoints = 1095
accept = 1079
rejected = 16
matrix size = 24
fillins = 0
solver = Normal
Matrix Compiler1: 2.30 KB object code size  0.6/0.3/[0.2]
Matrix Compiler2: 2.73 KB object code size  0.3/0.4/[0.2]

