Circuit: * C:\Users\Théo\Documents\Université\BAC INGE\ELEC\LELEC1530\Devoir 5\Spice\NOR.asc

Direct Newton iteration for .op point succeeded.

Date: Sat Dec 05 11:58:04 2020
Total elapsed time: 0.237 seconds.

tnom = 27
temp = 27
method = modified trap
totiter = 2372
traniter = 2366
tranpoints = 1100
accept = 1085
rejected = 15
matrix size = 24
fillins = 0
solver = Normal
Matrix Compiler1: 2.26 KB object code size  0.6/0.3/[0.2]
Matrix Compiler2: 2.54 KB object code size  0.3/0.4/[0.2]

