Circuit: * C:\Users\Théo\Documents\Université\BAC INGE\ELEC\LELEC1530\Devoir 2\Simulation_gain\Simu_gain_Rsig_Rl.asc

Direct Newton iteration for .op point succeeded.

Date: Sat Oct 17 17:21:51 2020
Total elapsed time: 0.071 seconds.

tnom = 27
temp = 27
method = trap
totiter = 7
traniter = 0
tranpoints = 0
accept = 0
rejected = 0
matrix size = 7
fillins = 0
solver = Normal
Matrix Compiler1:      14 opcodes
Matrix Compiler2: 481 bytes object code size
