Circuit: * C:\Users\Théo\Documents\Université\BAC INGE\ELEC\LELEC1530\Devoir 2\Simulation_gain\Simu_gain.asc

Direct Newton iteration for .op point succeeded.

Date: Sun Oct 18 15:44:49 2020
Total elapsed time: 0.316 seconds.

tnom = 27
temp = 27
method = trap
totiter = 8
traniter = 0
tranpoints = 0
accept = 0
rejected = 0
matrix size = 6
fillins = 0
solver = Normal
Matrix Compiler1:      11 opcodes
Matrix Compiler2: 408 bytes object code size
