Circuit: * C:\Users\Théo\Documents\Université\BAC INGE\ELEC\Projet 2\Comparateur.asc

Direct Newton iteration for .op point succeeded.

Date: Tue Feb 16 21:02:38 2021
Total elapsed time: 0.063 seconds.

tnom = 27
temp = 27
method = modified trap
totiter = 3860
traniter = 3823
tranpoints = 1516
accept = 1415
rejected = 101
matrix size = 27
fillins = 42
solver = Normal
Matrix Compiler1: 3.39 KB object code size  0.6/0.3/[0.2]
Matrix Compiler2: 2.84 KB object code size  0.3/0.4/[0.2]

