Circuit: * C:\Users\Théo\Documents\Université\BAC INGE\ELEC\Projet 2\Draft3.asc

Direct Newton iteration failed to find .op point.  (Use ".option noopiter" to skip.)
Starting Gmin stepping
Gmin = 10
Gmin = 1.07374
Gmin = 0.115292
Gmin = 0.0123794
Gmin = 0.00132923
Gmin = 0.000142725
Gmin = 1.5325e-005
Gmin = 1.6455e-006
Gmin = 1.76685e-007
Gmin = 1.89714e-008
Gmin = 2.03704e-009
Gmin = 2.18725e-010
Gmin = 2.34854e-011
Gmin = 2.52173e-012
Gmin = 2.70769e-013
Gmin = 0
Gmin stepping succeeded in finding the operating point.


Date: Sun Mar 07 20:17:29 2021
Total elapsed time: 0.367 seconds.

tnom = 27
temp = 27
method = modified trap
totiter = 21381
traniter = 20928
tranpoints = 9480
accept = 6986
rejected = 2494
matrix size = 22
fillins = 27
solver = Normal
Matrix Compiler1: 2.13 KB object code size  0.5/0.2/[0.1]
Matrix Compiler2: 2.77 KB object code size  0.3/0.4/[0.3]

