Circuit: * C:\Users\Théo\Documents\Université\BAC INGE\ELEC\Projet 2\Draft4.asc

.OP point found by inspection.

Date: Mon Mar 15 17:56:53 2021
Total elapsed time: 0.121 seconds.

tnom = 27
temp = 27
method = modified trap
totiter = 2852
traniter = 2852
tranpoints = 1427
accept = 1384
rejected = 43
matrix size = 3
fillins = 0
solver = Normal
Matrix Compiler1: off  [0.0]/0.0/0.1
Matrix Compiler2: 175 bytes object code size  0.1/0.1/[0.1]

