Circuit: * C:\Users\Théo\Documents\Université\BAC INGE\ELEC\Projet 2\Draft1.asc

.OP point found by inspection.

Date: Fri Feb 26 09:05:40 2021
Total elapsed time: 0.025 seconds.

tnom = 27
temp = 27
method = trap
totiter = 115
traniter = 0
tranpoints = 0
accept = 0
rejected = 0
matrix size = 6
fillins = 0
solver = Normal
Matrix Compiler1: 298 bytes object code size  0.1/0.1/[0.1]
Matrix Compiler2: 462 bytes object code size  0.1/0.1/[0.1]

