Circuit: * C:\Users\Théo\Documents\Université\BAC INGE\ELEC\Projet 2\Draft5.asc

Direct Newton iteration for .op point succeeded.

Date: Mon May 03 17:21:25 2021
Total elapsed time: 0.092 seconds.

tnom = 27
temp = 27
method = modified trap
totiter = 6045
traniter = 6040
tranpoints = 2870
accept = 2544
rejected = 326
matrix size = 6
fillins = 0
solver = Normal
Matrix Compiler1:      10 opcodes  0.2/[0.1]/0.1
Matrix Compiler2: 414 bytes object code size  0.2/0.2/[0.1]

