Circuit: * C:\Users\Théo\Documents\Université\BAC INGE\ELEC\Projet 2\Draft2.asc

Direct Newton iteration for .op point succeeded.

Date: Fri Feb 26 10:02:54 2021
Total elapsed time: 0.047 seconds.

tnom = 27
temp = 27
method = modified trap
totiter = 2798
traniter = 2793
tranpoints = 1353
accept = 1334
rejected = 19
matrix size = 6
fillins = 0
solver = Normal
Matrix Compiler1: 164 bytes object code size  0.1/0.0/[0.0]
Matrix Compiler2: 414 bytes object code size  0.1/0.1/[0.0]

