Circuit: * C:\Users\Théo\Documents\Université\BAC INGE\ELEC\Projet 2\NonInverting.asc

Direct Newton iteration for .op point succeeded.

Date: Wed Feb 17 20:43:15 2021
Total elapsed time: 0.061 seconds.

tnom = 27
temp = 27
method = modified trap
totiter = 3182
traniter = 3160
tranpoints = 1341
accept = 1231
rejected = 110
matrix size = 29
fillins = 32
solver = Normal
Matrix Compiler1: 2.77 KB object code size  0.5/0.3/[0.2]
Matrix Compiler2: 2.94 KB object code size  0.3/0.4/[0.3]

