Circuit: * C:\Users\Théo\Documents\Université\BAC INGE\ELEC\LELEC1530\Antoine\Draft1.asc

Direct Newton iteration for .op point succeeded.

Date: Sun Dec 06 23:21:47 2020
Total elapsed time: 0.329 seconds.

tnom = 27
temp = 27
method = modified trap
totiter = 2132
traniter = 2088
tranpoints = 1045
accept = 1045
rejected = 0
matrix size = 135
fillins = 4
solver = Normal
Thread vector: 50.4/37.4[2] 6.8/5.7[2] 3.5/3.1[2] 1.7/4.8[1]  2592/500
Matrix Compiler1: 17.09 KB object code size  5.6/3.3/[1.2]
Matrix Compiler2: 15.76 KB object code size  2.5/3.5/[1.2]

