Circuit: * C:\Users\Théo\Documents\unif\ELEC\Labo 5\Conformateur.asc

Direct Newton iteration for .op point succeeded.

Date: Fri May 15 11:39:20 2020
Total elapsed time: 0.127 seconds.

tnom = 27
temp = 27
method = modified trap
totiter = 2847
traniter = 2829
tranpoints = 1323
accept = 1284
rejected = 39
matrix size = 18
fillins = 9
solver = Normal
Matrix Compiler1: 1.45 KB object code size  0.4/0.2/[0.1]
Matrix Compiler2: 1.76 KB object code size  0.2/0.3/[0.2]

