Circuit: * C:\Users\Théo\Documents\Université\BAC INGE\ELEC\LELEC1530\Devoir 4\Spice\Draft2.asc

Direct Newton iteration for .op point succeeded.

Date: Fri Nov 20 17:56:35 2020
Total elapsed time: 0.103 seconds.

tnom = 27
temp = 27
method = modified trap
totiter = 2101
traniter = 2088
tranpoints = 1045
accept = 1045
rejected = 0
matrix size = 8
fillins = 0
solver = Normal
Matrix Compiler1: 318 bytes object code size  0.1/0.1/[0.0]
Matrix Compiler2: off  [0.1]/0.1/1.9

