Circuit: * C:\Users\Théo\Documents\Université\BAC INGE\ELEC\LELEC1530\Devoir 4\Spice\Draft1.asc

Direct Newton iteration for .op point succeeded.

Date: Fri Nov 20 17:47:59 2020
Total elapsed time: 0.125 seconds.

tnom = 27
temp = 27
method = modified trap
totiter = 2096
traniter = 2088
tranpoints = 1045
accept = 1045
rejected = 0
matrix size = 24
fillins = 0
solver = Normal
Matrix Compiler1: 2.30 KB object code size  0.5/0.2/[0.1]
Matrix Compiler2: 2.73 KB object code size  0.4/0.3/[0.2]

