Circuit: * C:\Users\Théo\Documents\Université\BAC INGE\ELEC\LELEC1530\Devoir 4\Spice\Draft3.asc

Direct Newton iteration for .op point succeeded.

Date: Fri Nov 20 18:11:13 2020
Total elapsed time: 0.168 seconds.

tnom = 27
temp = 27
method = modified trap
totiter = 2108
traniter = 2090
tranpoints = 1046
accept = 1046
rejected = 0
matrix size = 34
fillins = 0
solver = Normal
Matrix Compiler1: 2.87 KB object code size  0.6/0.4/[0.2]
Matrix Compiler2: off  [0.3]/0.4/1.1

