Circuit: * C:\Users\Théo\Documents\Université\BAC INGE\ELEC\LELEC1530\Devoir 6\Travail6-Simu-Denis-Théo\circuit.asc

Direct Newton iteration failed to find .op point.  (Use ".option noopiter" to skip.)
Starting Gmin stepping
Gmin = 10
Gmin = 1.07374
Gmin = 0.115292
Gmin = 0.0123794
Gmin = 0.00132923
Gmin = 0.000142725
Gmin = 1.5325e-005
Gmin = 1.6455e-006
Gmin = 1.76685e-007
Gmin = 1.89714e-008
Gmin = 2.03704e-009
Gmin = 2.18725e-010
Gmin = 2.34854e-011
Gmin = 2.52173e-012
Gmin = 2.70769e-013
Gmin = 0
Gmin stepping succeeded in finding the operating point.


Date: Sun Dec 20 22:10:32 2020
Total elapsed time: 1.515 seconds.

tnom = 27
temp = 27
method = modified trap
totiter = 6390
traniter = 5918
tranpoints = 1994
accept = 1722
rejected = 272
matrix size = 755
fillins = 96
solver = Normal
Thread vector: 232.0/107.5[4] 32.4/15.4[4] 14.2/10.9[4] 5.8/4.2[4]  2592/500
Matrix Compiler1: 121.27 KB object code size  36.8/33.7/[7.7]
Matrix Compiler2: 95.51 KB object code size  20.4/15.6/[11.9]

