Circuit: * C:\Users\Théo\Documents\Université\BAC INGE\ELEC\LELEC1530\Devoir 6\Travail6-Simu-Denis-Théo\Draft1.asc

.OP point found by inspection.

Date: Sun Feb 14 21:14:53 2021
Total elapsed time: 0.046 seconds.

tnom = 27
temp = 27
method = modified trap
totiter = 2968
traniter = 2968
tranpoints = 1485
accept = 1218
rejected = 267
matrix size = 3
fillins = 0
solver = Normal
Matrix Compiler1: off  [0.0]/0.0/0.1
Matrix Compiler2: 175 bytes object code size  0.0/0.0/[0.0]

